@<TRIPOS>MOLECULE
*****
 48 55 0 0 0
SMALL
GASTEIGER

@<TRIPOS>ATOM
      1 C          -0.7625   -2.8368    0.1866 C.ar    1  UNL1        0.0000
      2 C          -0.3697   -4.1043    0.1018 C.ar    1  UNL1        0.0000
      3 C           0.9857   -4.0712    0.0361 C.ar    1  UNL1        0.0000
      4 C           1.3290   -2.7848    0.0702 C.ar    1  UNL1        0.0000
      5 N           0.2606   -2.0274    0.0355 N.ar    1  UNL1        0.0000
      6 C           2.6640   -2.3333    0.0592 C.2     1  UNL1        0.0000
      7 C           2.9481   -1.0862   -0.1225 C.ar    1  UNL1        0.0000
      8 C           4.1875   -0.6307   -0.3184 C.ar    1  UNL1        0.0000
      9 C           4.0783    0.6747   -0.6502 C.ar    1  UNL1        0.0000
     10 C           2.8004    0.9644   -0.4943 C.ar    1  UNL1        0.0000
     11 N           2.0894   -0.0969   -0.1761 N.ar    1  UNL1        0.0000
     12 C           2.3737    2.2806   -0.4475 C.2     1  UNL1        0.0000
     13 C           1.1605    2.5834   -0.2065 C.ar    1  UNL1        0.0000
     14 C           0.7690    3.8473   -0.0621 C.ar    1  UNL1        0.0000
     15 C          -0.5633    3.8141    0.0671 C.ar    1  UNL1        0.0000
     16 C          -0.8990    2.5324   -0.0109 C.ar    1  UNL1        0.0000
     17 N           0.1540    1.7438   -0.1214 N.ar    1  UNL1        0.0000
     18 C          -2.1120    2.1660   -0.0644 C.2     1  UNL1        0.0000
     19 C          -2.4461    0.8365   -0.1113 C.ar    1  UNL1        0.0000
     20 C          -3.6987    0.4597   -0.2843 C.ar    1  UNL1        0.0000
     21 C          -3.7120   -0.8498    0.0129 C.ar    1  UNL1        0.0000
     22 C          -2.4422   -1.2195    0.1698 C.ar    1  UNL1        0.0000
     23 N          -1.6421   -0.1837    0.0825 N.ar    1  UNL1        0.0000
     24 C          -2.1016   -2.4518    0.2881 C.2     1  UNL1        0.0000
     25 H          -1.0431   -4.9144    0.0545 H       1  UNL1        0.0000
     26 H           1.6892   -4.8481   -0.0703 H       1  UNL1        0.0000
     27 H           3.4494   -3.0559    0.1095 H       1  UNL1        0.0000
     28 H           5.0429   -1.2229   -0.2295 H       1  UNL1        0.0000
     29 H           4.8079    1.3992   -0.8904 H       1  UNL1        0.0000
     30 H           3.1129    3.0498   -0.5285 H       1  UNL1        0.0000
     31 H           1.4182    4.6708   -0.1405 H       1  UNL1        0.0000
     32 H          -1.2582    4.6044    0.1108 H       1  UNL1        0.0000
     33 H          -2.9094    2.8822   -0.0531 H       1  UNL1        0.0000
     34 H          -4.5219   -1.5095    0.0502 H       1  UNL1        0.0000
     35 H          -2.8529   -3.2087    0.3376 H       1  UNL1        0.0000
     36 FE          0.2236   -0.1562   -0.0436 Fe      1  UNL1        0.0000
     37 S           0.1229   -0.0316    2.0129 S.3     1  UNL1        0.0000
     38 C           1.7243   -0.0971    2.7561 C.3     1  UNL1        0.0000
     39 C           1.2579   -0.3748    4.1652 C.2     1  UNL1        0.0000
     40 N           2.4791    1.1663    2.6186 N.4     1  UNL1        0.0000
     41 H           2.3928   -0.9328    2.4642 H       1  UNL1        0.0000
     42 H           3.1506    1.2579    3.4055 H       1  UNL1        0.0000
     43 H           1.8905    2.0263    2.5322 H       1  UNL1        0.0000
     44 O           2.1549   -0.3478    5.1383 O.co2   1  UNL1        0.0000
     45 O           0.1054   -0.7192    4.4521 O.co2   1  UNL1        0.0000
     46 H          -4.4825    1.1179   -0.5576 H       1  UNL1        0.0000
     47 O           0.1611   -0.2492   -1.7236 O.3     1  UNL1        0.0000
     48 H           3.1191    1.1176    1.8052 H       1  UNL1        0.0000
@<TRIPOS>BOND
     1     1     2   ar
     2     2     3   ar
     3     3     4   ar
     4     1     5   ar
     5     4     5   ar
     6     4     6    2
     7     6     7    1
     8     7     8   ar
     9     8     9   ar
    10     9    10   ar
    11     7    11   ar
    12    10    11   ar
    13    10    12    2
    14    12    13    1
    15    13    14   ar
    16    14    15   ar
    17    15    16   ar
    18    13    17   ar
    19    16    17   ar
    20    16    18    1
    21    18    19    2
    22    19    20   ar
    23    20    21   ar
    24    21    22   ar
    25    19    23   ar
    26    22    23   ar
    27     1    24    2
    28    22    24    1
    29     2    25    1
    30     3    26    1
    31     6    27    1
    32     8    28    1
    33     9    29    1
    34    12    30    1
    35    14    31    1
    36    15    32    1
    37    18    33    1
    38    21    34    1
    39    24    35    1
    40     5    36    1
    41    11    36    1
    42    17    36    1
    43    23    36    1
    44    36    37    1
    45    37    38    1
    46    38    39    1
    47    38    40    1
    48    38    41    1
    49    40    42    1
    50    40    43    1
    51    39    44   ar
    52    39    45   ar
    53    20    46    1
    54    36    47    1
    55    40    48    1
