@<TRIPOS>MOLECULE
*****
 16 15 0 0 0
SMALL
GASTEIGER

@<TRIPOS>ATOM
      1 C          -1.5983    0.2904   -0.0018 C.3     1  UNL1        0.0176
      2 C          -1.5247   -1.2220   -0.0070 C.2     1  UNL1        0.1256
      3 C          -0.5376    0.8600   -0.9618 C.3     1  UNL1       -0.0536
      4 C          -1.3434    0.8125    1.4242 C.3     1  UNL1       -0.0536
      5 C          -2.9973    0.7381   -0.4653 C.3     1  UNL1       -0.0536
      6 H           0.4842    0.5568   -0.6463 H       1  UNL1        0.0239
      7 H          -0.5793    1.9706   -0.9774 H       1  UNL1        0.0239
      8 H          -0.7074    0.4894   -1.9961 H       1  UNL1        0.0239
      9 H          -0.3360    0.5083    1.7821 H       1  UNL1        0.0239
     10 H          -2.1010    0.4076    2.1299 H       1  UNL1        0.0239
     11 H          -1.3991    1.9224    1.4510 H       1  UNL1        0.0239
     12 H          -3.2054    0.3716   -1.4941 H       1  UNL1        0.0239
     13 H          -3.0737    1.8471   -0.4691 H       1  UNL1        0.0239
     14 H          -3.7820    0.3376    0.2129 H       1  UNL1        0.0239
     15 O          -0.5006   -1.7984    0.3273 O.2     1  UNL1       -0.3005
     16 H          -2.3830   -1.8155   -0.3085 H       1  UNL1        0.1032
@<TRIPOS>BOND
     1     1     2    1
     2     1     3    1
     3     1     4    1
     4     1     5    1
     5     3     6    1
     6     3     7    1
     7     3     8    1
     8     4     9    1
     9     4    10    1
    10     4    11    1
    11     5    12    1
    12     5    13    1
    13     5    14    1
    14     2    15    2
    15     2    16    1
