@<TRIPOS>MOLECULE
*****
 7 6 0 0 0
SMALL
GASTEIGER

@<TRIPOS>ATOM
      1 C          -3.8591    0.7281    0.5651 C.3     1  UNL1       -0.0091
      2 C          -2.4399    0.9244    0.1294 C.2     1  UNL1        0.1172
      3 H          -3.8996   -0.0837    1.2952 H       1  UNL1        0.0303
      4 H          -4.4682    0.4712   -0.3045 H       1  UNL1        0.0303
      5 H          -4.2412    1.6443    1.0220 H       1  UNL1        0.0303
      6 O          -1.8533    1.9994    0.2011 O.2     1  UNL1       -0.3013
      7 H          -1.9414    0.0329   -0.2868 H       1  UNL1        0.1023
@<TRIPOS>BOND
     1     1     2    1
     2     1     3    1
     3     1     4    1
     4     1     5    1
     5     2     6    2
     6     2     7    1
